179
-9854.3221702932 11.835 11.835 15.780
Sr      -5.958501537  -5.962178778  -9.923279475
Sr      -5.949354488  -5.997064136  -6.009204842
Sr      -5.977740326  -6.009194049  -1.964525526
Sr      -5.967519552  -5.967712017   1.923723588
Sr      -5.961267477  -2.025421583  -9.923991420
Sr      -5.965657828  -1.963895776  -6.023481008
Sr      -5.994038141  -1.967731839  -1.960175855
Sr      -5.968164596  -2.029706406   1.917949598
Sr      -5.963069705   1.932875686  -9.929128693
Sr      -5.950084002   1.923590457  -5.975781379
Sr      -5.963996608   1.913011051  -2.033752173
Sr      -5.969782760   1.922687211   1.934462443
Sr      -2.019920041  -5.958234466  -9.920826065
Sr      -1.984676494  -5.979230404  -5.987206680
Sr      -1.994014641  -6.036629109  -1.957696250
Sr      -2.024793712  -5.968831409   1.935199022
Sr      -2.022126542  -2.024120944  -9.932198500
Sr      -1.989613391  -1.958012423  -6.049390813
Mn      -2.000031364  -1.920894437  -1.902482404
Sr      -2.029073182  -2.012340411   1.950881077
Sr      -2.022457956   1.933536199  -9.924038543
Sr      -2.014867976   1.936822587  -5.977317087
Sr      -2.027355440   1.936969891  -2.004725400
Sr      -2.026813003   1.925658327   1.931700659
Sr       1.927279485  -5.963516537  -9.926245710
Sr       1.967124204  -6.000437215  -6.020938395
Sr       1.956602577  -6.015776926  -1.965275817
Sr       1.920308820  -5.970425033   1.928236807
Sr       1.930261691  -2.020434815  -9.932235079
Sr       1.963314619  -1.965963155  -6.041933906
Sr       1.948728255  -1.970255233  -1.955864231
Sr       1.921927571  -2.025077994   1.927403851
Sr       1.924663741   1.933952921  -9.930498306
Sr       1.930752839   1.925591025  -5.985906746
Sr       1.932325938   1.912934496  -2.020384395
Sr       1.922482549   1.922407187   1.938891182
Ti      -7.954792896  -7.953590499 -11.912874236
Ti      -7.944392170  -7.960348110  -7.976523578
Ti      -7.942752753  -7.946055033  -4.016778194
Ti      -7.953172998  -7.972628857  -0.057057366
Ti      -7.952436432  -4.011202271 -11.922925241
Ti      -7.948050742  -4.007276872  -7.958442322
Ti      -7.891975874  -4.007654380  -4.011604764
Ti      -7.969497936  -4.008995140  -0.087247890
Ti      -7.955047797  -0.069517866 -11.913577429
Ti      -7.945646606  -0.046173627  -7.984695641
Ti      -7.961644132  -0.097103184  -4.010093662
Ti      -7.957287412  -0.053132680  -0.055458438
Ti      -4.011212027  -7.954200235 -11.909949466
Ti      -4.000456784  -7.951840798  -7.964354387
Ti      -3.991669453  -7.962305553  -4.009175863
Ti      -4.013717013  -7.965783778  -0.062798107
Ti      -4.022774257  -4.010123904 -11.917479939
Ti      -3.993625772  -4.004336416  -7.961165894
Ti      -4.078473754  -3.970900772  -3.977595304
Ti      -3.989946522  -4.009909237  -0.079801151
Ti      -4.016318787  -0.062251080 -11.910448488
Ti      -4.005308034  -0.055184416  -7.978645789
Ti      -3.978776126  -0.080940604  -4.013791723
Ti      -4.017793198  -0.059191067  -0.058862038
Ti      -0.066533424  -7.955029345 -11.910387710
Ti      -0.060568921  -7.950043755  -7.966126458
Ti      -0.051413074  -7.979627706  -4.008161797
Ti      -0.058052675  -7.968140629  -0.060358743
Ti      -0.059829028  -4.011529248 -11.915024709
Ti      -0.064857173  -3.999957094  -7.978899737
Ti       0.148620753  -3.969487633  -3.981928679
Ti      -0.093594206  -4.006319507  -0.065356586
Ti      -0.066477569  -0.063035554 -11.910964582
Ti      -0.056309768  -0.051030920  -7.983529854
Ti      -0.087685246  -0.068862572  -4.013515950
Ti      -0.063121455  -0.056920644  -0.054155984
O       -7.841838712  -5.878130203 -11.795590551
O       -7.845841867  -5.886310820  -7.833193906
O       -7.867129230  -5.853243917  -3.877436091
O       -7.845525331  -5.878073981   0.018984123
O       -7.841224353  -1.941653643 -11.795823122
O       -7.848145686  -1.934160950  -7.841078863
O       -7.857282111  -1.974672313  -3.876561750
O       -7.844740193  -1.939435649   0.029239022
O       -7.846896991   2.008460234 -11.802213466
O       -7.843376707   2.000646638  -7.838247852
O       -7.860646533   2.000057058  -3.903180109
O       -7.849913645   1.998770689   0.056395258
O       -3.895275227  -5.881280302 -11.795378454
O       -3.906618058  -5.878865887  -7.827709648
O       -3.673985255  -5.805359209  -3.898490357
O       -3.900482163  -5.876323519   0.019886534
O       -3.896311591  -1.942352498 -11.798010138
O       -3.920243753  -1.936441929  -7.851880896
O       -3.650240374  -1.999245830  -3.897061360
O       -3.910116945  -1.938097528   0.044238955
O       -3.904547541   2.008168367 -11.796365874
O       -3.893691221   2.005046025  -7.825280471
O       -4.048029374   1.999170416  -3.918761141
O       -3.891925016   2.004030995   0.035408435
O        0.041148766  -5.883534326 -11.795389374
O        0.053066065  -5.875389417  -7.834482146
O       -0.243030442  -5.795784560  -3.884085211
O        0.044613557  -5.871121278   0.010390047
O        0.040324845  -1.939976136 -11.796783760
O        0.065187353  -1.938036109  -7.860834724
O       -0.267720833  -2.001581426  -3.883423607
O        0.057725014  -1.940249349   0.035188718
O        0.052625607   2.008506819 -11.801322454
O        0.037519277   2.003806608  -7.819476525
O        0.149867062   1.997428353  -3.928120447
O        0.049464865   2.001846933   0.034285668
O       -7.858630176  -7.863940268  -9.829974743
O       -7.863764364  -7.859156419  -5.871622644
O       -7.864932545  -7.876800710  -1.931109024
O       -7.859067594  -7.851271097   2.001980011
O       -7.866780435  -3.916885889  -9.808742425
O       -7.873278043  -3.906206887  -5.846959736
O       -7.870803923  -3.902162793  -1.962092716
O       -7.856920630  -3.918023774   1.974896377
O       -7.859454228   0.031423241  -9.832898210
O       -7.866406869   0.012514029  -5.861750665
O       -7.865290205   0.033588693  -1.936294141
O       -7.856029846   0.021751603   2.000560636
O       -3.916623291  -7.857576317  -9.823333771
O       -3.917313497  -7.840195888  -5.866204174
O       -3.933457421  -7.853895592  -1.937745153
O       -3.914393954  -7.852240459   2.000621219
O       -3.970661783  -3.924628896  -9.821139039
O       -3.727158721  -3.896551057  -5.814338590
O       -3.706417985  -3.901872883  -1.991034055
O       -3.971659105  -3.926162322   1.990847064
O       -3.920931307   0.034554807  -9.830943191
O       -3.915313181  -0.005099059  -5.868171176
O       -3.907456888   0.015488233  -1.933775856
O       -3.923013049   0.033628581   2.004138977
O        0.030489495  -7.862866897  -9.824239872
O        0.032962059  -7.830918918  -5.864828595
O        0.047710757  -7.858953514  -1.939451976
O        0.027839728  -7.850027665   1.997994753
O        0.073571484  -3.922774497  -9.832987950
O       -0.171168310  -3.886794527  -5.816626454
O       -0.185987508  -3.888444978  -1.986422760
O        0.068764877  -3.923413828   1.998607698
O        0.034352683   0.039787952  -9.833457779
O        0.030598295  -0.018900298  -5.866101648
O        0.026197034   0.014574786  -1.935272045
O        0.037401853   0.029692975   2.002506573
O       -5.882892314  -7.840939882 -11.794800590
O       -5.883765379  -7.853590894  -7.840890268
O       -5.884799450  -7.728596492  -3.902868694
O       -5.887640368  -7.847444075   0.045263412
O       -5.895837365  -3.898340014 -11.795020965
O       -5.875328578  -3.904011793  -7.753168617
O       -5.874834650  -3.924334961  -3.917801979
O       -5.856809519  -3.897336339  -0.075988338
O       -5.884475025   0.044172661 -11.792657089
O       -5.886919713   0.052666358  -7.835026750
O       -5.862241104  -0.099614289  -3.888270519
O       -5.888092454   0.050541046   0.029703132
O       -1.938178767  -7.850429901 -11.794115840
O       -1.937275619  -7.842361687  -7.845055473
O       -1.944222045  -8.005012419  -3.884096119
O       -1.936539405  -7.846648715   0.033109112
O       -1.940860168  -3.898694999 -11.804400778
O       -1.939201943  -3.887830898  -7.943816310
O       -1.940099314  -3.888413351   0.143130529
O       -1.937938042   0.052248322 -11.799029439
O       -1.937412993   0.034011827  -7.850712140
O       -1.944251726   0.210260638  -3.901342780
O       -1.937431810   0.033379998   0.049462352
O        2.007093453  -7.837953141 -11.796156603
O        2.009275467  -7.854447591  -7.844560268
O        1.996563982  -7.735086968  -3.903162578
O        2.006194762  -7.838633502   0.045879919
O        2.015901788  -3.897965990 -11.803779000
O        2.001671483  -3.906154659  -7.764583363
O        1.952801210  -3.916546328  -3.914657901
O        1.988614767  -3.898277774  -0.051044248
O        2.009243839   0.039446030 -11.795851728
O        2.008802225   0.052628101  -7.838722392
O        1.979099994  -0.091330558  -3.888343896
O        2.007632850   0.042873453   0.035410992
