319
-17573.0183710265 15.780 15.780 15.780
Sr      -9.862825000  -9.862825000  -9.862825000
Sr      -9.862825000  -9.862825000  -5.917695000
Sr      -9.862825000  -9.862825000  -1.972565000
Sr      -9.862825000  -9.862825000   1.972565000
Sr      -9.862825000  -5.917695000  -9.862825000
Sr      -9.862825000  -5.917695000  -5.917695000
Sr      -9.862825000  -5.917695000  -1.972565000
Sr      -9.862825000  -5.917695000   1.972565000
Sr      -9.862825000  -1.972565000  -9.862825000
Sr      -9.862825000  -1.972565000  -5.917695000
Sr      -9.862825000  -1.972565000  -1.972565000
Sr      -9.862825000  -1.972565000   1.972565000
Sr      -9.862825000   1.972565000  -9.862825000
Sr      -9.862825000   1.972565000  -5.917695000
Sr      -9.862825000   1.972565000  -1.972565000
Sr      -9.862825000   1.972565000   1.972565000
Sr      -5.917695000  -9.862825000  -9.862825000
Sr      -5.917695000  -9.862825000  -5.917695000
Sr      -5.917695000  -9.862825000  -1.972565000
Sr      -5.917695000  -9.862825000   1.972565000
Sr      -5.917695000  -5.917695000  -9.862825000
Mn      -5.917695000  -5.917695000  -5.917695000
Sr      -5.917695000  -5.917695000  -1.972565000
Sr      -5.917695000  -5.917695000   1.972565000
Sr      -5.917695000  -1.972565000  -9.862825000
Sr      -5.917695000  -1.972565000  -5.917695000
Sr      -5.917695000  -1.972565000  -1.972565000
Sr      -5.917695000  -1.972565000   1.972565000
Sr      -5.917695000   1.972565000  -9.862825000
Sr      -5.917695000   1.972565000  -5.917695000
Sr      -5.917695000   1.972565000  -1.972565000
Sr      -5.917695000   1.972565000   1.972565000
Sr      -1.972565000  -9.862825000  -9.862825000
Sr      -1.972565000  -9.862825000  -5.917695000
Sr      -1.972565000  -9.862825000  -1.972565000
Sr      -1.972565000  -9.862825000   1.972565000
Sr      -1.972565000  -5.917695000  -9.862825000
Sr      -1.972565000  -5.917695000  -5.917695000
Sr      -1.972565000  -5.917695000  -1.972565000
Sr      -1.972565000  -5.917695000   1.972565000
Sr      -1.972565000  -1.972565000  -9.862825000
Sr      -1.972565000  -1.972565000  -5.917695000
Sr      -1.972565000  -1.972565000  -1.972565000
Sr      -1.972565000  -1.972565000   1.972565000
Sr      -1.972565000   1.972565000  -9.862825000
Sr      -1.972565000   1.972565000  -5.917695000
Sr      -1.972565000   1.972565000  -1.972565000
Sr      -1.972565000   1.972565000   1.972565000
Sr       1.972565000  -9.862825000  -9.862825000
Sr       1.972565000  -9.862825000  -5.917695000
Sr       1.972565000  -9.862825000  -1.972565000
Sr       1.972565000  -9.862825000   1.972565000
Sr       1.972565000  -5.917695000  -9.862825000
Sr       1.972565000  -5.917695000  -5.917695000
Sr       1.972565000  -5.917695000  -1.972565000
Sr       1.972565000  -5.917695000   1.972565000
Sr       1.972565000  -1.972565000  -9.862825000
Sr       1.972565000  -1.972565000  -5.917695000
Sr       1.972565000  -1.972565000  -1.972565000
Sr       1.972565000  -1.972565000   1.972565000
Sr       1.972565000   1.972565000  -9.862825000
Sr       1.972565000   1.972565000  -5.917695000
Sr       1.972565000   1.972565000  -1.972565000
Sr       1.972565000   1.972565000   1.972565000
Ti     -11.835390000 -11.835390000 -11.835390000
Ti     -11.835390000 -11.835390000  -7.890260000
Ti     -11.835390000 -11.835390000  -3.945130000
Ti     -11.835390000 -11.835390000   0.000000000
Ti     -11.835390000  -7.890260000 -11.835390000
Ti     -11.835390000  -7.890260000  -7.890260000
Ti     -11.835390000  -7.890260000  -3.945130000
Ti     -11.835390000  -7.890260000   0.000000000
Ti     -11.835390000  -3.945130000 -11.835390000
Ti     -11.835390000  -3.945130000  -7.890260000
Ti     -11.835390000  -3.945130000  -3.945130000
Ti     -11.835390000  -3.945130000   0.000000000
Ti     -11.835390000   0.000000000 -11.835390000
Ti     -11.835390000   0.000000000  -7.890260000
Ti     -11.835390000   0.000000000  -3.945130000
Ti     -11.835390000   0.000000000   0.000000000
Ti      -7.890260000 -11.835390000 -11.835390000
Ti      -7.890260000 -11.835390000  -7.890260000
Ti      -7.890260000 -11.835390000  -3.945130000
Ti      -7.890260000 -11.835390000   0.000000000
Ti      -7.890260000  -7.890260000 -11.835390000
Ti      -7.890260000  -7.890260000  -7.890260000
Ti      -7.890260000  -7.890260000  -3.945130000
Ti      -7.890260000  -7.890260000   0.000000000
Ti      -7.890260000  -3.945130000 -11.835390000
Ti      -7.890260000  -3.945130000  -7.890260000
Ti      -7.890260000  -3.945130000  -3.945130000
Ti      -7.890260000  -3.945130000   0.000000000
Ti      -7.890260000   0.000000000 -11.835390000
Ti      -7.890260000   0.000000000  -7.890260000
Ti      -7.890260000   0.000000000  -3.945130000
Ti      -7.890260000   0.000000000   0.000000000
Ti      -3.945130000 -11.835390000 -11.835390000
Ti      -3.945130000 -11.835390000  -7.890260000
Ti      -3.945130000 -11.835390000  -3.945130000
Ti      -3.945130000 -11.835390000   0.000000000
Ti      -3.945130000  -7.890260000 -11.835390000
Ti      -3.945130000  -7.890260000  -7.890260000
Ti      -3.945130000  -7.890260000  -3.945130000
Ti      -3.945130000  -7.890260000   0.000000000
Ti      -3.945130000  -3.945130000 -11.835390000
Ti      -3.945130000  -3.945130000  -7.890260000
Ti      -3.945130000  -3.945130000  -3.945130000
Ti      -3.945130000  -3.945130000   0.000000000
Ti      -3.945130000   0.000000000 -11.835390000
Ti      -3.945130000   0.000000000  -7.890260000
Ti      -3.945130000   0.000000000  -3.945130000
Ti      -3.945130000   0.000000000   0.000000000
Ti       0.000000000 -11.835390000 -11.835390000
Ti       0.000000000 -11.835390000  -7.890260000
Ti       0.000000000 -11.835390000  -3.945130000
Ti       0.000000000 -11.835390000   0.000000000
Ti       0.000000000  -7.890260000 -11.835390000
Ti       0.000000000  -7.890260000  -7.890260000
Ti       0.000000000  -7.890260000  -3.945130000
Ti       0.000000000  -7.890260000   0.000000000
Ti       0.000000000  -3.945130000 -11.835390000
Ti       0.000000000  -3.945130000  -7.890260000
Ti       0.000000000  -3.945130000  -3.945130000
Ti       0.000000000  -3.945130000   0.000000000
Ti       0.000000000   0.000000000 -11.835390000
Ti       0.000000000   0.000000000  -7.890260000
Ti       0.000000000   0.000000000  -3.945130000
Ti       0.000000000   0.000000000   0.000000000
O      -11.835390000  -9.862825000 -11.835390000
O      -11.835390000  -9.862825000  -7.890260000
O      -11.835390000  -9.862825000  -3.945130000
O      -11.835390000  -9.862825000   0.000000000
O      -11.835390000  -5.917695000 -11.835390000
O      -11.835390000  -5.917695000  -7.890260000
O      -11.835390000  -5.917695000  -3.945130000
O      -11.835390000  -5.917695000   0.000000000
O      -11.835390000  -1.972565000 -11.835390000
O      -11.835390000  -1.972565000  -7.890260000
O      -11.835390000  -1.972565000  -3.945130000
O      -11.835390000  -1.972565000   0.000000000
O      -11.835390000   1.972565000 -11.835390000
O      -11.835390000   1.972565000  -7.890260000
O      -11.835390000   1.972565000  -3.945130000
O      -11.835390000   1.972565000   0.000000000
O       -7.890260000  -9.862825000 -11.835390000
O       -7.890260000  -9.862825000  -7.890260000
O       -7.890260000  -9.862825000  -3.945130000
O       -7.890260000  -9.862825000   0.000000000
O       -7.890260000  -5.917695000 -11.835390000
O       -7.890260000  -5.917695000  -7.890260000
O       -7.890260000  -5.917695000  -3.945130000
O       -7.890260000  -5.917695000   0.000000000
O       -7.890260000  -1.972565000 -11.835390000
O       -7.890260000  -1.972565000  -7.890260000
O       -7.890260000  -1.972565000  -3.945130000
O       -7.890260000  -1.972565000   0.000000000
O       -7.890260000   1.972565000 -11.835390000
O       -7.890260000   1.972565000  -7.890260000
O       -7.890260000   1.972565000  -3.945130000
O       -7.890260000   1.972565000   0.000000000
O       -3.945130000  -9.862825000 -11.835390000
O       -3.945130000  -9.862825000  -7.890260000
O       -3.945130000  -9.862825000  -3.945130000
O       -3.945130000  -9.862825000   0.000000000
O       -3.945130000  -5.917695000 -11.835390000
O       -3.945130000  -5.917695000  -3.945130000
O       -3.945130000  -5.917695000   0.000000000
O       -3.945130000  -1.972565000 -11.835390000
O       -3.945130000  -1.972565000  -7.890260000
O       -3.945130000  -1.972565000  -3.945130000
O       -3.945130000  -1.972565000   0.000000000
O       -3.945130000   1.972565000 -11.835390000
O       -3.945130000   1.972565000  -7.890260000
O       -3.945130000   1.972565000  -3.945130000
O       -3.945130000   1.972565000   0.000000000
O        0.000000000  -9.862825000 -11.835390000
O        0.000000000  -9.862825000  -7.890260000
O        0.000000000  -9.862825000  -3.945130000
O        0.000000000  -9.862825000   0.000000000
O        0.000000000  -5.917695000 -11.835390000
O        0.000000000  -5.917695000  -7.890260000
O        0.000000000  -5.917695000  -3.945130000
O        0.000000000  -5.917695000   0.000000000
O        0.000000000  -1.972565000 -11.835390000
O        0.000000000  -1.972565000  -7.890260000
O        0.000000000  -1.972565000  -3.945130000
O        0.000000000  -1.972565000   0.000000000
O        0.000000000   1.972565000 -11.835390000
O        0.000000000   1.972565000  -7.890260000
O        0.000000000   1.972565000  -3.945130000
O        0.000000000   1.972565000   0.000000000
O      -11.835390000 -11.835390000  -9.862825000
O      -11.835390000 -11.835390000  -5.917695000
O      -11.835390000 -11.835390000  -1.972565000
O      -11.835390000 -11.835390000   1.972565000
O      -11.835390000  -7.890260000  -9.862825000
O      -11.835390000  -7.890260000  -5.917695000
O      -11.835390000  -7.890260000  -1.972565000
O      -11.835390000  -7.890260000   1.972565000
O      -11.835390000  -3.945130000  -9.862825000
O      -11.835390000  -3.945130000  -5.917695000
O      -11.835390000  -3.945130000  -1.972565000
O      -11.835390000  -3.945130000   1.972565000
O      -11.835390000   0.000000000  -9.862825000
O      -11.835390000   0.000000000  -5.917695000
O      -11.835390000   0.000000000  -1.972565000
O      -11.835390000   0.000000000   1.972565000
O       -7.890260000 -11.835390000  -9.862825000
O       -7.890260000 -11.835390000  -5.917695000
O       -7.890260000 -11.835390000  -1.972565000
O       -7.890260000 -11.835390000   1.972565000
O       -7.890260000  -7.890260000  -9.862825000
O       -7.890260000  -7.890260000  -5.917695000
O       -7.890260000  -7.890260000  -1.972565000
O       -7.890260000  -7.890260000   1.972565000
O       -7.890260000  -3.945130000  -9.862825000
O       -7.890260000  -3.945130000  -5.917695000
O       -7.890260000  -3.945130000  -1.972565000
O       -7.890260000  -3.945130000   1.972565000
O       -7.890260000   0.000000000  -9.862825000
O       -7.890260000   0.000000000  -5.917695000
O       -7.890260000   0.000000000  -1.972565000
O       -7.890260000   0.000000000   1.972565000
O       -3.945130000 -11.835390000  -9.862825000
O       -3.945130000 -11.835390000  -5.917695000
O       -3.945130000 -11.835390000  -1.972565000
O       -3.945130000 -11.835390000   1.972565000
O       -3.945130000  -7.890260000  -9.862825000
O       -3.945130000  -7.890260000  -5.917695000
O       -3.945130000  -7.890260000  -1.972565000
O       -3.945130000  -7.890260000   1.972565000
O       -3.945130000  -3.945130000  -9.862825000
O       -3.945130000  -3.945130000  -5.917695000
O       -3.945130000  -3.945130000  -1.972565000
O       -3.945130000  -3.945130000   1.972565000
O       -3.945130000   0.000000000  -9.862825000
O       -3.945130000   0.000000000  -5.917695000
O       -3.945130000   0.000000000  -1.972565000
O       -3.945130000   0.000000000   1.972565000
O        0.000000000 -11.835390000  -9.862825000
O        0.000000000 -11.835390000  -5.917695000
O        0.000000000 -11.835390000  -1.972565000
O        0.000000000 -11.835390000   1.972565000
O        0.000000000  -7.890260000  -9.862825000
O        0.000000000  -7.890260000  -5.917695000
O        0.000000000  -7.890260000  -1.972565000
O        0.000000000  -7.890260000   1.972565000
O        0.000000000  -3.945130000  -9.862825000
O        0.000000000  -3.945130000  -5.917695000
O        0.000000000  -3.945130000  -1.972565000
O        0.000000000  -3.945130000   1.972565000
O        0.000000000   0.000000000  -9.862825000
O        0.000000000   0.000000000  -5.917695000
O        0.000000000   0.000000000  -1.972565000
O        0.000000000   0.000000000   1.972565000
O       -9.862825000 -11.835390000 -11.835390000
O       -9.862825000 -11.835390000  -7.890260000
O       -9.862825000 -11.835390000  -3.945130000
O       -9.862825000 -11.835390000   0.000000000
O       -9.862825000  -7.890260000 -11.835390000
O       -9.862825000  -7.890260000  -7.890260000
O       -9.862825000  -7.890260000  -3.945130000
O       -9.862825000  -7.890260000   0.000000000
O       -9.862825000  -3.945130000 -11.835390000
O       -9.862825000  -3.945130000  -7.890260000
O       -9.862825000  -3.945130000  -3.945130000
O       -9.862825000  -3.945130000   0.000000000
O       -9.862825000   0.000000000 -11.835390000
O       -9.862825000   0.000000000  -7.890260000
O       -9.862825000   0.000000000  -3.945130000
O       -9.862825000   0.000000000   0.000000000
O       -5.917695000 -11.835390000 -11.835390000
O       -5.917695000 -11.835390000  -7.890260000
O       -5.917695000 -11.835390000  -3.945130000
O       -5.917695000 -11.835390000   0.000000000
O       -5.917695000  -7.890260000 -11.835390000
O       -5.917695000  -7.890260000  -7.890260000
O       -5.917695000  -7.890260000  -3.945130000
O       -5.917695000  -7.890260000   0.000000000
O       -5.917695000  -3.945130000 -11.835390000
O       -5.917695000  -3.945130000  -7.890260000
O       -5.917695000  -3.945130000  -3.945130000
O       -5.917695000  -3.945130000   0.000000000
O       -5.917695000   0.000000000 -11.835390000
O       -5.917695000   0.000000000  -7.890260000
O       -5.917695000   0.000000000  -3.945130000
O       -5.917695000   0.000000000   0.000000000
O       -1.972565000 -11.835390000 -11.835390000
O       -1.972565000 -11.835390000  -7.890260000
O       -1.972565000 -11.835390000  -3.945130000
O       -1.972565000 -11.835390000   0.000000000
O       -1.972565000  -7.890260000 -11.835390000
O       -1.972565000  -7.890260000  -7.890260000
O       -1.972565000  -7.890260000  -3.945130000
O       -1.972565000  -7.890260000   0.000000000
O       -1.972565000  -3.945130000 -11.835390000
O       -1.972565000  -3.945130000  -7.890260000
O       -1.972565000  -3.945130000  -3.945130000
O       -1.972565000  -3.945130000   0.000000000
O       -1.972565000   0.000000000 -11.835390000
O       -1.972565000   0.000000000  -7.890260000
O       -1.972565000   0.000000000  -3.945130000
O       -1.972565000   0.000000000   0.000000000
O        1.972565000 -11.835390000 -11.835390000
O        1.972565000 -11.835390000  -7.890260000
O        1.972565000 -11.835390000  -3.945130000
O        1.972565000 -11.835390000   0.000000000
O        1.972565000  -7.890260000 -11.835390000
O        1.972565000  -7.890260000  -7.890260000
O        1.972565000  -7.890260000  -3.945130000
O        1.972565000  -7.890260000   0.000000000
O        1.972565000  -3.945130000 -11.835390000
O        1.972565000  -3.945130000  -7.890260000
O        1.972565000  -3.945130000  -3.945130000
O        1.972565000  -3.945130000   0.000000000
O        1.972565000   0.000000000 -11.835390000
O        1.972565000   0.000000000  -7.890260000
O        1.972565000   0.000000000  -3.945130000
O        1.972565000   0.000000000   0.000000000
